-------------------------------------------------------
          Amber 16 PMEMD                              2016
          -------------------------------------------------------

  [-O]verwriting output

File Assignments:

 Here is the input file:

Production of his
 &cntrl
  imin=0, nstlim=50000, dt=0.002,
  irest=0, ntx=1, ig=-1,
  tempi=300, temp0=300,
  ntc=2, ntf=2, tol = 0.00001,
  ntwx=500, ntwe=500, ntwr=50000, ntpr=500,
  cut=999.0, iwrap=0,
  ntt=3, gamma_ln=1.0,
  iphmd=1, igb=8, solvph=7.0, saltcon=0.15,
/

Note: ig = -1. Setting random seed to   951765 based on wallclock time in
      microseconds.

--------------------------------------------------------------------------------
   1.  RESOURCE   USE:
--------------------------------------------------------------------------------

 NATOM  =      27 NTYPES =       9 NBONH =      13 MBONA  =      14
 NTHETH =      27 MTHETA =      18 NPHIH =      59 MPHIA  =      43
 NHPARM =       0 NPARM  =       0 NNB   =     130 NRES   =       3
 NBONA  =      14 NTHETA =      18 NPHIA =      43 NUMBND =      17
 NUMANG =      33 NPTRA  =      36 NATYP =      14 NPHB   =       0
 IFBOX  =       0 NMXRS  =      18 IFCAP =       0 NEXTRA =       0
 NCOPY  =       0

 Implicit solvent radii are ArgH and AspGluO modified Bondi2 radii (mbondi3)
 Replacing prmtop screening parameters with GBn2 (igb=8) values
 PHMD> simulation pH =    7.00
 PHMD> titr grps     =    2
 PHMD> lambda,barrier=    1  1.00  2.50
 PHMD> lambda,barrier=    2  0.71  2.50
--------------------------------------------------------------------------------
   2.  CONTROL  DATA  FOR  THE  RUN
--------------------------------------------------------------------------------

ACE

General flags:
     imin    =       0, nmropt  =       0

Nature and format of input:
     ntx     =       1, irest   =       0, ntrx    =       1

Nature and format of output:
     ntxo    =       2, ntpr    =     500, ntrx    =       1, ntwr    =   50000
     iwrap   =       0, ntwx    =     500, ntwv    =       0, ntwe    =     500
     ioutfm  =       1, ntwprt  =       0, idecomp =       0, rbornstat=      0

Potential function:
     ntf     =       2, ntb     =       0, igb     =       8, nsnb    =      25
     ipol    =       0, gbsa    =       0, iesp    =       0
     dielc   =   1.00000, cut     = 999.00000, intdiel =   1.00000
     saltcon =   0.15000, offset  =   0.19514, surften =   0.00500
     rdt     =   0.00000, rgbmax  =  25.00000  extdiel =  78.50000
     alpb  =        0
     gbalphaH  =   0.78844, gbbetaH   =   0.79870,  gbgammaH  =    0.43733
     gbalphaC  =   0.73376, gbbetaC   =   0.50638,  gbgammaC  =    0.20584
     gbalphaN  =   0.50336, gbbetaN   =   0.31683,  gbgammaN  =    0.19292
     gbalphaOS =   0.86781, gbbetaOS  =   0.87664,  gbgammaOS =    0.38788
     gbalphaP  =   1.00000, gbbetaP   =   0.80000,  gbgammaP  =    4.85000
     gb_alpha_hnu  =   0.53705, gb_beta_hnu   =   0.36286,  gb_gamma_hnu  =    0.11670
     gb_alpha_cnu  =   0.33167, gb_beta_cnu   =   0.19684,  gb_gamma_cnu  =    0.09342
     gb_alpha_nnu  =   0.68631, gb_beta_nnu   =   0.46319,  gb_gamma_nnu  =    0.13872
     gb_alpha_onu  =   0.60634, gb_beta_onu   =   0.46301,  gb_gamma_onu  =    0.14226
     gb_alpha_pnu  =   0.41836, gb_beta_pnu   =   0.29005,  gb_gamma_pnu  =    0.10642

Frozen or restrained atoms:
     ibelly  =       0, ntr     =       0

Molecular dynamics:
     nstlim  =     50000, nscm    =      1000, nrespa  =         1
     t       =   0.00000, dt      =   0.00200, vlimit  =  -1.00000

Langevin dynamics temperature regulation:
     ig      =  951765
     temp0   = 300.00000, tempi   = 300.00000, gamma_ln=   1.00000

SHAKE:
     ntc     =       2, jfastw  =       0
     tol     =   0.00001

--------------------------------------------------------------------------------
   3.  ATOMIC COORDINATES AND VELOCITIES
--------------------------------------------------------------------------------

ACE
 begin time read from input coords =     0.000 ps

 Number of triangulated 3-point waters found:        0

--------------------------------------------------------------------------------
   4.  RESULTS
 NSTEP =        0   TIME(PS) =       0.000  TEMP(K) =   381.82  PRESS =     0.0
 Etot   =       -27.5157  EKtot   =        25.7973  EPtot      =       -53.3130
 BOND   =         0.4972  ANGLE   =        22.1968  DIHED      =        16.1467
 1-4 NB =         1.9080  1-4 EEL =       -11.4064  VDWAALS    =        -2.9886
 EELEC  =       -58.5682  EGB     =       -21.0984  RESTRAINT  =         0.0000
 ------------------------------------------------------------------------------

      A V E R A G E S   O V E R     100 S T E P S

 NSTEP =    50000   TIME(PS) =     100.000  TEMP(K) =   304.72  PRESS =     0.0
 Etot   =       -13.9200  EKtot   =        20.5881  EPtot      =       -34.5081
 BOND   =         5.0722  ANGLE   =        31.2684  DIHED      =        20.8540
 1-4 NB =         2.3744  1-4 EEL =       -11.2085  VDWAALS    =        -2.5688
 EELEC  =       -56.9221  EGB     =       -23.3777  RESTRAINT  =         0.0000
 ------------------------------------------------------------------------------

      R M S  F L U C T U A T I O N S

 NSTEP =    50000   TIME(PS) =     100.000  TEMP(K) =    53.77  PRESS =     0.0
 Etot   =         4.8440  EKtot   =         3.6332  EPtot      =         3.4069
 BOND   =         1.7102  ANGLE   =         2.9414  DIHED      =         1.9282
 1-4 NB =         0.6763  1-4 EEL =         2.0469  VDWAALS    =         0.5443
 EELEC  =         2.6368  EGB     =         1.8221  RESTRAINT  =         0.0000
 ------------------------------------------------------------------------------
